results/small_network_2/sweep2_siting.csv
statcom_bus,scenario,scenario_label,status,vuf_pct,breaches_vuf,vmin_pu,vmin_bus,vmin_phase,vmax_pu,vmax_bus,vmax_phase,vmin_ground_pu,breaches_vmin,nev_pu,nev_bus,v2_pu,loss_total_kw,loss_series_kw,loss_neutral_kw,loss_shunt_kw,loss_pct_of_load,i_neutral_head_a,i_neutral_max_a,i_phase_max_a,p_ph1_kw,p_ph2_kw,p_ph3_kw,p_sum_kw,q_ph1_kvar,q_ph2_kvar,q_ph3_kvar,util
mid2,B,Q-only,SOLVED,2.105207051902045,true,0.8112024958554259,endbus,1,1.0355749084505548,endbus,2,0.8930704716020651,true,0.08221562515182688,endbus,0.01990912148317785,9.355518850867732,8.923815114945704,3.837850542538076,0.4317037359220277,10.421073629482295,185.250836199724,188.2069080992872,243.03867551141158,2.4997992370265857e-7,2.4997992616231583e-7,2.4997992221935665e-7,7.499397720843311e-7,9.998466145934936,9.999465025050414,-9.999611447349853,0.9999611447349857
mid2,Bc,Q-only capacitive,SOLVED,2.496286589502295,true,0.8193581133053033,endbus,1,1.0244839912704717,endbus,2,0.8933862010455906,true,0.07402831432763997,endbus,0.02366568373262946,8.212314714719662,7.875152302887701,2.9820386625875805,0.33716241183196277,9.147663285680492,153.85192440238146,155.95779669328465,240.85041515366103,2.499841916407392e-7,2.499841917184853e-7,2.499841915310936e-7,7.499525748903182e-7,9.999220857004527,9.999625449047935,0.00026517071502150913,0.9999625449047939
mid2,C,P-only,SOLVED,1.9657987608566285,false,0.8558724733723768,endbus,1,1.0089121487228232,endbus,3,0.9036418058365723,true,0.05104240708564177,endbus,0.018598157141944894,6.330371516014326,6.179854342639511,1.6419019719641437,0.1505171733748148,7.051374565318102,85.77644546069457,127.5518378203579,198.25700505348823,9.999586312731578,-9.551761189537698,-0.44782512319388307,-3.164135620181696e-15,-2.67082139243123e-15,1.6511502913847865e-15,1.007344737781472e-15,0.9999586312731579
mid2,D,P+Q,SOLVED,1.426569773502624,false,0.8423145962585602,endbus,1,1.000384257835905,endbus,2,0.9044537384531481,true,0.06253482656702504,endbus,0.013489039139988624,6.9445369876375205,6.715001996736475,2.101674566371944,0.22953499090104568,7.735490935825697,114.57759182595107,127.53693451088046,198.093637100684,9.54638030859685,-7.601873840486255,-1.9445064681105948,4.440892098500626e-16,2.9738915465784093,6.494281148255989,-9.807403814948756,0.9998870332551384
endbus,B,Q-only,SOLVED,1.414173854861303,false,0.8053157099992833,endbus,1,1.057777765836452,endbus,2,0.8977715092503745,true,0.09565366717827442,endbus,0.013373571500660736,10.470184620091093,9.927307860163644,4.908145805836901,0.542876759927448,11.66269520477983,180.4373114586137,188.99963691123577,244.31128470810526,2.499801288004259e-7,2.499801293595307e-7,2.4998012850323086e-7,7.499403866631874e-7,9.999506511468208,9.999829331447426,-9.999881097829054,0.9999881097829058
endbus,Bc,Q-only capacitive,SOLVED,2.1282815373005572,true,0.8189175503030119,endbus,1,1.037069128142395,endbus,2,0.898342281696123,true,0.07992771387421359,endbus,0.020223804106042763,8.553292136156248,8.173826329272476,3.4266155729606154,0.37946580688377,9.527476620614033,151.3409383353809,157.4453104656347,240.91465220461876,2.499831874965649e-7,2.499832001766134e-7,2.4998318132769065e-7,7.49949569000869e-7,9.999720200280228,9.99988645746529,8.432120282994099e-5,0.9999886457465292
endbus,C,P-only,SOLVED,1.208810535009643,false,0.8875930080643504,endbus,1,1.0075723758412443,endbus,3,0.918038324284443,true,0.04057314732356883,endbus,0.011451072146231516,4.960428203185804,4.8627082659014045,0.8826836366191249,0.09771993728439907,5.525400393412201,76.74468823855325,79.98430358378486,190.47825349035185,9.999867462264875,-9.003930561893712,-0.9959369003711827,-1.9761969838327786e-14,-2.109558486205467e-14,1.3251267494799194e-14,7.619696512414027e-15,0.9999867462264875
endbus,D,P+Q,SOLVED,0.13684915076380338,false,0.8637271861597237,endbus,1,0.9996093715458939,sourcebus,2,0.9199818865364843,true,0.05664457398110721,endbus,0.0012950812724758334,5.990457705310662,5.800268247018394,1.7209285870184432,0.19018945829226788,6.672745981966763,106.54743812465414,112.15180684625447,191.06850268957615,9.54905197198329,-7.579946638517937,-1.9691053334653537,2.220446049250313e-16,2.966663261397505,6.5206689872558465,-9.803014262212322,0.9999274197168695
